[General]
network = WoTNetwork
record-eventlog=true
sim-time-limit = 300s
